*HEADING
sonda: ccx distingue le maiuscole nei nomi di *NSET?
*NODE
1, 0.0, 0.0, 0.0
2, 10.0, 0.0, 0.0
3, 0.0, 10.0, 0.0
4, 0.0, 0.0, 10.0
*ELEMENT, TYPE=C3D4, ELSET=TUTTO
1, 1, 2, 3, 4
*NSET, NSET=BASSO
1, 2, 3
*NSET, NSET=alto
4
*SOLID SECTION, ELSET=TUTTO, MATERIAL=ACCIAIO
*MATERIAL, NAME=ACCIAIO
*ELASTIC
210000.0, 0.3
*DENSITY
7.85e-9
*BOUNDARY
BASSO, 1, 3
*STEP
*STATIC
*CLOAD
ALTO, 3, -100.0
*NODE PRINT, NSET=BASSO
RF
*NODE FILE
U
*END STEP
